<?xml version="1.0" encoding="UTF-8"?>

<!-- generated on 2022-01-01 21:14:54 by Eclipse SUMO polyconvert Version 1.11.0
<configuration xmlns:xsi="http://www.w3.org/2001/XMLSchema-instance" xsi:noNamespaceSchemaLocation="http://sumo.dlr.de/xsd/polyconvertConfiguration.xsd">

    <input>
        <net-file value="osm.net.xml"/>
        <osm-files value="agh_bbox.osm.xml"/>
        <osm.keep-full-type value="true"/>
        <type-file value="C:\Program%20Files%20(x86)\Eclipse\Sumo\data\typemap\osmPolyconvert.typ.xml"/>
    </input>

    <output>
        <output-file value="osm.poly.xml"/>
    </output>

    <processing>
        <poi-layer-offset value="5"/>
    </processing>

    <report>
        <verbose value="true"/>
    </report>

</configuration>
-->

<additional xmlns:xsi="http://www.w3.org/2001/XMLSchema-instance" xsi:noNamespaceSchemaLocation="http://sumo.dlr.de/xsd/additional_file.xsd">
    <location netOffset="-420717.49,-5545950.40" convBoundary="-911.18,-1156.87,3954.14,2222.75" origBoundary="19.879194,50.050574,19.947591,50.080781" projParameter="+proj=utm +zone=34 +ellps=WGS84 +datum=WGS84 +units=m +no_defs"/>

    <poly id="1001562902" type="landuse.grass" color="194,194,130" fill="1" layer="-3.00" shape="2221.476575,565.598476 2198.014896,577.212890 2160.300993,592.269035 2129.745831,603.385561 2111.384738,610.789923 2113.208809,615.167337 2115.672930,617.767347 2119.907941,620.564213 2127.645065,621.998322 2133.139771,620.818104 2137.522898,618.997816 2140.491027,625.771894 2162.030062,617.854732 2170.954397,611.276102 2180.130197,604.760585 2188.811399,596.706458 2202.591369,588.801255 2211.833481,585.887896 2221.585638,569.689267 2221.476575,565.598476"/>
    <poly id="1006782826" type="landuse.grass" color="194,194,130" fill="1" layer="-3.00" shape="649.503193,832.193118 650.556010,836.614768 655.099884,835.547087 654.046906,831.114318 649.503193,832.193118"/>
    <poly id="1006782827" type="amenity.parking" color="184,184,179" fill="1" layer="-1.00" shape="586.473112,825.058005 588.864332,834.330784 587.116383,834.234184 586.145368,833.914857 585.156111,833.328903 584.348010,832.406664 583.736850,831.247993 583.334533,830.175213 583.268564,829.097482 583.517148,827.992879 584.103553,826.983390 584.957362,826.147896 586.473112,825.058005"/>
    <poly id="1006782827#1" type="landuse.grass" color="194,194,130" fill="1" layer="-3.00" shape="586.473112,825.058005 588.864332,834.330784 587.116383,834.234184 586.145368,833.914857 585.156111,833.328903 584.348010,832.406664 583.736850,831.247993 583.334533,830.175213 583.268564,829.097482 583.517148,827.992879 584.103553,826.983390 584.957362,826.147896 586.473112,825.058005"/>
    <poly id="1006782828" type="landuse.grass" color="194,194,130" fill="1" layer="-3.00" shape="643.730652,810.070108 645.196564,809.970703 646.612421,810.361343 648.015599,810.863376 649.008450,811.693942 649.726616,812.828806 650.033964,814.258848 650.028885,815.860294 649.688726,817.066325 648.909085,818.078648 647.656471,819.053445 646.288173,819.462791 643.730652,810.070108"/>
    <poly id="1006782829" type="landuse.grass" color="194,194,130" fill="1" layer="-3.00" shape="579.102198,821.285397 577.755820,821.238492 575.102192,820.399024 571.991712,816.241212 570.986738,814.587911 570.445082,812.316154 570.683516,810.522221 571.788853,808.782249 573.616540,807.487591 575.379702,806.672070 578.080351,805.842750 638.597799,790.562164 641.192996,790.835371 643.413356,791.903656 645.113050,794.558731 646.188703,797.612206 646.740014,801.029253 646.193176,802.783236 644.602285,804.118869 642.330845,804.930721 641.196064,800.777174 577.852823,816.644240 579.102198,821.285397"/>
    <poly id="122522705" type="building.university" color="255,230,230" fill="1" layer="-1.00" shape="2320.706023,459.869747 2319.692474,460.073384 2318.880767,456.893471 2319.173077,456.811420 2317.816313,451.570931 2317.516526,451.630849 2316.725967,448.428391 2317.789615,448.224032 2312.539415,427.615391 2311.647688,427.828397 2307.863392,413.081427 2311.757447,412.080128 2314.766931,411.291734 2319.517896,410.144660 2319.662358,410.731969 2337.143415,406.276835 2348.704909,403.341470 2351.388177,417.692846 2340.575625,420.439500 2330.397806,423.021355 2330.450304,423.187408 2329.374096,423.514270 2333.611662,440.912541 2333.483319,440.947749 2334.044764,443.152658 2336.591438,442.537743 2336.021557,440.243992 2344.972847,437.991169 2349.432576,455.908920 2340.409426,458.140528 2339.861339,455.868704 2337.322468,456.527987 2337.905700,458.754823 2338.076824,458.707879 2342.492458,476.047991 2343.804990,475.728851 2343.849851,475.861652 2354.227165,473.221347 2360.931370,471.512423 2362.901335,480.569567 2363.862666,485.693429 2358.064512,487.189146 2340.242260,491.793695 2340.429819,492.391506 2328.783282,495.372600 2325.078119,480.646721 2325.933894,480.423114 2320.706023,459.869747"/>
    <poly id="123143261" type="building.yes" color="255,230,230" fill="1" layer="-1.00" shape="2362.360165,322.020693 2374.304766,322.315954 2379.374804,322.443209 2379.738905,308.437216 2372.513470,308.263116 2372.535983,307.339788 2373.674590,307.367894 2373.751007,304.219683 2368.409304,304.118582 2368.355484,305.353735 2367.346343,305.368250 2367.350537,308.148324 2362.675401,308.104364 2362.360165,322.020693"/>
    <poly id="123143271" type="building.yes" color="255,230,230" fill="1" layer="-1.00" shape="2341.916836,321.614200 2341.927790,321.380511 2341.612242,321.340569 2341.604557,318.816317 2341.575182,298.366067 2341.555954,287.078997 2348.910321,284.270897 2348.978955,297.002926 2350.189454,297.052234 2351.111194,297.928617 2351.053182,300.364850 2350.192020,301.211279 2348.694920,301.143853 2348.708319,303.567937 2347.874507,304.325009 2346.105601,304.272615 2346.060104,306.085917 2345.517331,306.671995 2346.574574,307.513065 2346.863533,307.197533 2359.374214,307.529100 2359.395725,308.029215 2362.675401,308.104364 2362.360165,322.020693 2358.743798,321.928145 2358.760351,322.083595 2345.556434,321.828727 2345.554195,321.673072 2341.916836,321.614200"/>
    <poly id="125099303" type="building.apartments" color="255,230,230" fill="1" layer="-1.00" shape="2365.432585,336.055101 2360.835081,335.932183 2360.830323,336.099059 2355.860815,335.992617 2351.679055,335.908209 2351.684132,335.763569 2347.358433,335.625632 2347.339402,336.293138 2346.893264,349.566361 2350.051727,349.676607 2350.022861,350.655630 2350.371514,351.006471 2352.111936,351.070397 2352.225366,349.500769 2355.519971,349.620181 2360.225618,349.797141 2360.847075,350.700086 2360.750116,355.405469 2357.691694,355.282656 2357.385516,370.822455 2356.827115,370.819367 2356.796729,372.688055 2356.709692,378.082769 2354.647498,379.535864 2354.115564,378.386980 2345.890575,379.383834 2345.545864,386.272408 2352.692067,385.424520 2364.068134,384.026492 2364.210792,383.991078 2364.616504,371.886095 2364.883838,359.616295 2365.121782,351.772893 2365.428466,336.266450 2365.432585,336.055101"/>
    <poly id="125099335" type="building.yes" color="255,230,230" fill="1" layer="-1.00" shape="2365.419814,515.318394 2343.827102,523.035321 2347.838835,534.198227 2350.210346,533.352307 2350.836784,535.100340 2370.057940,528.229351 2365.419814,515.318394"/>
    <poly id="125099337" type="building.yes" color="255,230,230" fill="1" layer="-1.00" shape="2369.221373,373.020879 2369.227851,372.475879 2365.160471,372.378695 2364.616504,371.886095 2364.883838,359.616295 2380.023075,360.054666 2379.718719,373.236881 2369.221373,373.020879"/>
    <poly id="125099355" type="building.yes" color="255,230,230" fill="1" layer="-1.00" shape="2367.740780,450.741387 2369.447006,429.020671 2365.267999,428.624839 2365.928952,420.330529 2368.021158,420.467244 2370.077100,420.571118 2372.738997,388.149821 2388.828978,389.497546 2388.532328,393.260554 2388.205329,397.402096 2387.732466,403.347263 2383.836933,452.033401 2367.740780,450.741387"/>
    <poly id="125099356" type="building.apartments" color="255,230,230" fill="1" layer="-1.00" shape="2365.121782,351.772893 2365.428466,336.266450 2365.628862,336.263568 2365.646495,335.996421 2380.483127,336.294581 2380.463894,336.450545 2380.642819,336.447972 2380.241177,350.332179 2377.879538,350.377263 2377.830833,351.968201 2365.121782,351.772893"/>
    <poly id="127761892" type="building.apartments" color="255,230,230" fill="1" layer="-1.00" shape="2370.045226,647.775371 2367.722333,639.557341 2367.572524,639.592858 2366.388166,635.384088 2366.501711,635.315731 2380.264793,631.203337 2380.772907,633.186606 2379.861022,633.488855 2383.086941,644.273869 2380.157103,645.116685 2370.045226,647.775371"/>
    <poly id="127761915" type="building.apartments" color="255,230,230" fill="1" layer="-1.00" shape="2361.818515,618.769008 2356.444132,600.452945 2369.644641,596.537668 2370.201100,596.407338 2375.468250,614.736076 2361.818515,618.769008"/>
    <poly id="127761932" type="building.yes" color="255,230,230" fill="1" layer="-1.00" shape="2376.545880,564.244434 2375.882070,562.385730 2372.833090,553.455306 2383.583059,548.863600 2388.168824,560.129484 2388.259022,560.428442 2376.545880,564.244434"/>
    <poly id="127761937" type="building.yes" color="255,230,230" fill="1" layer="-1.00" shape="2381.047242,618.915004 2381.429339,620.099407 2380.460198,620.402479 2379.995380,618.941253 2377.515435,619.710876 2375.924993,614.640543 2382.981259,612.537359 2388.790398,610.819097 2388.947844,610.816833 2395.087950,609.216144 2398.238707,608.303437 2400.143097,613.802963 2395.449271,615.427332 2384.286467,618.679369 2384.113390,618.092469 2381.047242,618.915004"/>
    <poly id="127761941" type="building.yes" color="255,230,230" fill="1" layer="-1.00" shape="2378.036023,594.192863 2374.757851,582.763613 2380.333889,581.259985 2383.712882,592.732271 2378.036023,594.192863"/>
    <poly id="127761960" type="building.apartments" color="255,230,230" fill="1" layer="-1.00" shape="2349.949902,577.938313 2343.496759,554.800347 2354.179495,551.010227 2357.176172,559.785706 2357.279565,560.006630 2361.127039,570.204421 2361.142792,570.304279 2363.030719,574.158190 2349.949902,577.938313"/>
    <poly id="127761963" type="building.yes" color="255,230,230" fill="1" layer="-1.00" shape="2357.279565,560.006630 2372.833090,553.455306 2375.882070,562.385730 2362.471651,567.638474 2363.162652,569.396700 2361.142792,570.304279 2361.127039,570.204421 2357.279565,560.006630"/>
    <poly id="127761964" type="building.apartments" color="255,230,230" fill="1" layer="-1.00" shape="2356.444132,600.452945 2353.050132,588.936408 2360.165276,586.943554 2365.855172,585.393791 2368.222588,593.221960 2368.714637,593.092557 2369.644641,596.537668 2356.444132,600.452945"/>
    <poly id="127761965" type="building.apartments" color="255,230,230" fill="1" layer="-1.00" shape="2353.050132,588.936408 2349.949902,577.938313 2363.030719,574.158190 2363.765457,573.980812 2378.175316,569.536617 2379.023076,572.738261 2378.167794,572.995214 2380.333889,581.259985 2374.757851,582.763613 2372.656037,574.987223 2370.723777,575.515440 2371.199595,577.243401 2371.016280,577.935511 2370.498961,578.298810 2358.465060,581.707996 2360.165276,586.943554 2353.050132,588.936408"/>
    <poly id="131446564" type="landuse.residential" color="235,235,227" fill="1" layer="-3.00" shape="761.308989,291.566642 802.710869,721.994178 868.782526,707.557729 1011.968356,670.630016 1065.818398,629.018248 1041.294922,511.142704 839.449619,263.074242 761.308989,291.566642"/>
    <poly id="131449145" type="leisure.pitch" color="207,245,201" fill="1" layer="-2.00" shape="1368.222551,399.211025 1456.144993,375.778467 1425.501849,261.371118 1337.577630,284.804158 1368.222551,399.211025"/>
    <poly id="131449145#1" type="sport.soccer" color="79,230,125" fill="1" layer="-2.00" shape="1368.222551,399.211025 1456.144993,375.778467 1425.501849,261.371118 1337.577630,284.804158 1368.222551,399.211025"/>
    <poly id="131582594" type="leisure.pitch" color="207,245,201" fill="1" layer="-2.00" shape="656.583786,560.667705 728.216299,554.810767 719.856396,453.046412 648.229679,458.903343 656.583786,560.667705"/>
    <poly id="131582594#1" type="sport.soccer" color="79,230,125" fill="1" layer="-2.00" shape="656.583786,560.667705 728.216299,554.810767 719.856396,453.046412 648.229679,458.903343 656.583786,560.667705"/>
    <poly id="131582596" type="leisure.pitch" color="207,245,201" fill="1" layer="-2.00" shape="724.161957,611.140704 738.240184,610.522423 736.717128,575.548183 722.631652,576.166573 724.161957,611.140704"/>
    <poly id="131582596#1" type="sport.tennis" color="79,230,125" fill="1" layer="-2.00" shape="724.161957,611.140704 738.240184,610.522423 736.717128,575.548183 722.631652,576.166573 724.161957,611.140704"/>
    <poly id="131582598" type="leisure.pitch" color="207,245,201" fill="1" layer="-2.00" shape="729.680224,705.618335 744.022994,704.996177 742.210366,662.975707 727.867484,663.597869 729.680224,705.618335"/>
    <poly id="131582598#1" type="sport.tennis" color="79,230,125" fill="1" layer="-2.00" shape="729.680224,705.618335 744.022994,704.996177 742.210366,662.975707 727.867484,663.597869 729.680224,705.618335"/>
    <poly id="131582600" type="leisure.pitch" color="207,245,201" fill="1" layer="-2.00" shape="722.631652,576.166573 708.174031,576.790467 709.704431,611.764596 724.161957,611.140704 722.631652,576.166573"/>
    <poly id="131582600#1" type="sport.tennis" color="79,230,125" fill="1" layer="-2.00" shape="722.631652,576.166573 708.174031,576.790467 709.704431,611.764596 724.161957,611.140704 722.631652,576.166573"/>
    <poly id="131582601" type="leisure.pitch" color="207,245,201" fill="1" layer="-2.00" shape="701.001686,706.851544 715.344451,706.229309 713.524441,664.208952 699.188720,664.831085 701.001686,706.851544"/>
    <poly id="131582601#1" type="sport.tennis" color="79,230,125" fill="1" layer="-2.00" shape="701.001686,706.851544 715.344451,706.229309 713.524441,664.208952 699.188720,664.831085 701.001686,706.851544"/>
    <poly id="131582602" type="leisure.pitch" color="207,245,201" fill="1" layer="-2.00" shape="715.344451,706.229309 729.680224,705.618335 727.867484,663.597869 713.524441,664.208952 715.344451,706.229309"/>
    <poly id="131582602#1" type="sport.tennis" color="79,230,125" fill="1" layer="-2.00" shape="715.344451,706.229309 729.680224,705.618335 727.867484,663.597869 713.524441,664.208952 715.344451,706.229309"/>
    <poly id="131606241" type="landuse.residential" color="235,235,227" fill="1" layer="-3.00" shape="866.067265,1019.253064 801.115305,768.368367 1016.186552,714.294525 1077.142071,698.968064 1079.210306,698.448507 1086.750836,698.660723 1110.493525,798.499128 1117.055837,843.930970 1118.704613,855.361096 1082.499641,884.681778 1084.090103,892.120448 1090.532431,918.571133 1096.277627,943.853235 1098.030376,950.155233 1103.070016,968.308224 866.067265,1019.253064"/>
    <poly id="131633006" type="amenity.parking" color="184,184,179" fill="1" layer="-1.00" shape="1323.667792,677.552786 1276.452722,688.805966 1265.235354,646.077471 1312.780172,634.341207 1323.667792,677.552786"/>
    <poly id="132577333" type="landuse.allotments" color="194,194,130" fill="1" layer="-3.00" shape="331.239221,155.232157 343.165144,147.427346 353.304013,145.620721 362.649398,146.316848 387.320650,144.507140 415.363758,132.505799 465.435189,109.359535 530.991713,79.891598 628.895318,35.002537 655.304977,86.147153 657.638492,91.484106 586.533606,119.508596 582.086659,133.041115 497.249059,170.576899 531.595812,244.879483 566.710528,320.839064 556.100954,327.122715 523.023558,346.726152 446.444774,392.114714 359.783365,444.937231 356.065002,447.149518 350.203487,450.627833 283.194839,490.450678 273.102416,475.976138 241.010255,413.429694 248.144504,406.462804 211.683840,343.358336 203.411309,329.023820 173.227489,296.386326 194.965519,273.934697 232.182448,237.064382 272.880263,200.276360 313.777477,168.712420 331.239221,155.232157"/>
    <poly id="136614062" type="natural.wood" color="140,196,107" fill="1" layer="-4.00" shape="695.587834,256.634690 668.921376,268.291829 585.693034,310.484385 565.066304,266.038560 563.571073,258.320612 587.563870,246.924701 591.980066,247.849451 607.180630,243.166425 595.800040,199.496357 613.583063,195.164578 624.919486,235.354574 668.656649,218.631014 668.473359,214.441233 632.487231,225.201343 622.358665,208.235673 614.043062,178.743767 594.590472,185.891387 566.850971,196.152499 553.204101,234.897491 531.595812,244.879483 566.710528,320.839064 590.046881,345.605985 631.252092,323.258951 633.947307,309.874558 652.975208,299.675143 661.070769,307.896583 695.065290,292.684309 690.408721,284.167622 721.772037,270.617804 720.117870,258.887608 724.962598,256.336538 724.273873,247.950587 730.673373,245.977196 722.244348,223.826412 717.087981,213.938088 696.048563,220.274605 681.751004,225.522373 670.882625,229.318572 686.292500,236.920986 695.587834,256.634690"/>
    <poly id="136652404" type="waterway.stream" color="181,209,209" fill="0" layer="-4.00" shape="720.997126,268.060325 658.614707,293.731655 593.342021,330.188786"/>
    <poly id="153187056" type="leisure.pitch" color="207,245,201" fill="1" layer="-2.00" shape="843.970856,866.979953 908.746284,851.150651 898.256851,808.456662 879.077923,813.141632 833.480766,824.274967 843.970856,866.979953"/>
    <poly id="153187056#1" type="sport.soccer" color="79,230,125" fill="1" layer="-2.00" shape="843.970856,866.979953 908.746284,851.150651 898.256851,808.456662 879.077923,813.141632 833.480766,824.274967 843.970856,866.979953"/>
    <poly id="153187721" type="amenity.parking" color="184,184,179" fill="1" layer="-1.00" shape="838.028263,872.238230 845.167400,901.213929 920.461574,882.750553 913.315834,853.785981 838.028263,872.238230"/>
    <poly id="156511915" type="building.roof" color="255,230,230" fill="1" layer="-1.00" shape="1751.230280,1082.141306 1752.012831,1087.734731 1760.192412,1086.648627 1759.445489,1081.043564 1751.230280,1082.141306"/>
    <poly id="156511947" type="building.roof" color="255,230,230" fill="1" layer="-1.00" shape="1751.230280,1082.141306 1759.445489,1081.043564 1758.875343,1076.770407 1750.710058,1077.856305 1750.799032,1079.056038 1751.230280,1082.141306"/>
    <poly id="156511957" type="building.roof" color="255,230,230" fill="1" layer="-1.00" shape="1752.012831,1087.734731 1752.787740,1093.294906 1760.938689,1092.209218 1760.192412,1086.648627 1752.012831,1087.734731"/>
    <poly id="156511969" type="building.yes" color="255,230,230" fill="1" layer="-1.00" shape="1763.070284,1078.789128 1765.857739,1078.515179 1765.572359,1075.616845 1762.784903,1075.890794 1763.070284,1078.789128"/>
    <poly id="157902552" type="amenity.university" color="237,199,199" fill="1" layer="-2.00" shape="2230.997851,352.046835 2243.460869,360.007510 2269.561512,465.943960 2204.323625,482.530545 2226.181987,563.784739 2221.476575,565.598476 2100.268131,612.273721 2107.715150,639.233667 2029.178092,673.017764 2027.371576,673.822304 2018.587144,678.175047 2016.593713,676.446804 2008.425571,679.856531 2007.172931,680.352819 2000.848943,661.294609 1980.082571,669.156778 1988.858148,691.426729 1933.257283,714.861128 1924.154234,691.739716 1911.064672,696.855522 1919.752933,719.504730 1911.811671,722.755637 1891.286468,669.117922 1865.416260,679.923523 1875.351421,702.654696 1865.624342,706.654362 1877.540287,737.163500 1877.697011,737.606054 1866.065749,742.578536 1862.544235,744.075200 1859.478159,745.387342 1857.249189,739.258821 1850.504640,742.103272 1842.300918,745.513773 1836.052395,746.527285 1820.027873,748.649916 1801.931542,745.120003 1792.600247,744.810408 1791.018805,743.854717 1787.981929,742.241766 1769.081420,744.962262 1769.908345,747.196631 1762.646068,746.912697 1756.362554,749.461449 1699.111866,745.910355 1698.364775,742.273645 1696.760408,732.833312 1693.661312,722.002356 1691.655179,715.459204 1686.045574,697.858889 1670.292351,703.392047 1679.658288,732.714522 1682.578230,743.036525 1683.197170,745.240538 1679.785214,744.911957 1660.516934,743.990626 1661.010904,735.120351 1661.010320,730.149460 1655.656158,719.796084 1630.191601,729.407050 1628.142886,723.387207 1615.395017,719.479989 1587.258287,617.601636 1572.321216,620.198506 1568.298947,563.108284 1647.214421,536.228901 1747.380154,493.318039 1932.686050,426.468661 1979.656055,414.857932 1979.811569,415.711967 2053.072496,397.516617 2169.994299,368.483829 2183.251396,364.489445 2230.997851,352.046835"/>
    <poly id="166777825" type="building.retail" color="255,230,230" fill="1" layer="-1.00" shape="2326.021985,398.007506 2321.917438,381.897310 2327.894142,380.365625 2332.048610,396.463987 2326.021985,398.007506"/>
    <poly id="181807080" type="amenity.school" color="237,199,199" fill="1" layer="-2.00" shape="1534.714768,899.471621 1535.014845,899.433895 1532.949569,886.864298 1532.652936,884.677856 1531.884081,879.551323 1535.291810,877.133083 1530.786155,852.288480 1529.153751,851.767310 1529.009500,849.723220 1504.700028,841.747473 1490.018084,851.502540 1485.710280,854.045112 1484.675262,857.685485 1481.725933,857.172372 1481.001104,860.485735 1477.631857,859.645116 1473.514984,862.518538 1472.833745,865.875750 1469.373248,865.158792 1468.696904,868.360245 1465.638940,867.759757 1461.370179,870.524193 1460.549060,874.105855 1457.060913,873.456030 1456.255764,876.659361 1452.975959,876.062109 1448.742021,878.759325 1445.604371,878.093284 1444.458480,881.490628 1435.848959,886.987224 1435.323242,890.208731 1430.424282,890.491354 1426.079591,893.445975 1425.150994,897.018088 1421.889913,896.231533 1417.367783,899.288830 1417.255071,904.328102 1414.083081,906.709624 1415.016415,912.801239 1431.062329,1009.516938 1466.119117,1004.024544 1471.157506,1032.508905 1493.039408,1028.654127 1513.614142,995.949391 1541.754463,959.776309 1544.585210,956.076474 1537.254892,912.701549 1534.714768,899.471621"/>
    <poly id="181807080#1" type="landuse.school" color="194,194,130" fill="1" layer="-3.00" shape="1534.714768,899.471621 1535.014845,899.433895 1532.949569,886.864298 1532.652936,884.677856 1531.884081,879.551323 1535.291810,877.133083 1530.786155,852.288480 1529.153751,851.767310 1529.009500,849.723220 1504.700028,841.747473 1490.018084,851.502540 1485.710280,854.045112 1484.675262,857.685485 1481.725933,857.172372 1481.001104,860.485735 1477.631857,859.645116 1473.514984,862.518538 1472.833745,865.875750 1469.373248,865.158792 1468.696904,868.360245 1465.638940,867.759757 1461.370179,870.524193 1460.549060,874.105855 1457.060913,873.456030 1456.255764,876.659361 1452.975959,876.062109 1448.742021,878.759325 1445.604371,878.093284 1444.458480,881.490628 1435.848959,886.987224 1435.323242,890.208731 1430.424282,890.491354 1426.079591,893.445975 1425.150994,897.018088 1421.889913,896.231533 1417.367783,899.288830 1417.255071,904.328102 1414.083081,906.709624 1415.016415,912.801239 1431.062329,1009.516938 1466.119117,1004.024544 1471.157506,1032.508905 1493.039408,1028.654127 1513.614142,995.949391 1541.754463,959.776309 1544.585210,956.076474 1537.254892,912.701549 1534.714768,899.471621"/>
    <poly id="181823524" type="amenity.university" color="237,199,199" fill="1" layer="-2.00" shape="1403.451786,798.460892 1416.944509,795.517590 1427.204183,787.817302 1508.427166,768.775541 1511.924270,768.068559 1512.005052,768.701257 1517.735487,767.505850 1523.186177,794.816589 1469.898298,829.921110 1461.607627,835.201730 1461.192272,834.696228 1451.975143,840.746549 1444.184869,844.996818 1406.638490,867.851481 1405.077748,831.954686 1404.638674,828.346888 1403.451786,798.460892"/>
    <poly id="181823529" type="building.roof" color="255,230,230" fill="1" layer="-1.00" shape="1423.659807,831.973195 1446.140676,817.089014 1422.361240,822.428392 1423.659807,831.973195"/>
    <poly id="181823531" type="building.university" color="255,230,230" fill="1" layer="-1.00" shape="1457.837007,789.083908 1461.917277,806.806348 1461.963614,807.039206 1456.872435,810.349402 1451.610805,813.751050 1450.738530,809.393354 1449.035677,802.067430 1446.945333,802.542684 1443.856173,803.243771 1440.859722,803.921268 1437.906210,804.598143 1434.824046,805.288012 1431.806291,805.976946 1428.731447,806.677833 1425.649447,807.378827 1422.702934,808.044487 1419.613779,808.745588 1410.345025,810.759955 1413.228672,823.962587 1414.209779,828.418778 1414.486190,829.704741 1417.888315,845.579888 1418.041350,845.766709 1418.324656,846.051719 1418.541613,846.204248 1418.671398,846.269081 1419.052464,846.385858 1419.460697,846.402154 1419.789402,846.364006 1440.653770,832.548677 1457.879043,821.477585 1456.914823,820.146028 1460.820752,817.531439 1465.307034,814.463582 1466.337602,815.927622 1483.260958,804.760923 1503.537492,791.354744 1504.646004,790.304404 1505.844153,789.019227 1506.740804,787.182407 1506.964350,786.311749 1507.228085,785.251457 1507.058474,782.940841 1506.970535,782.308247 1506.786813,781.487996 1506.659008,781.067272 1506.383547,780.337320 1506.184179,779.917638 1505.948704,779.476240 1505.692084,779.057390 1505.480020,778.749098 1505.290719,778.529440 1501.119467,781.114494 1500.856457,779.272302 1499.309016,779.672913 1490.804787,781.598173 1484.205499,783.095387 1481.102172,783.807779 1457.837007,789.083908"/>
    <poly id="182465290" type="building.yes" color="255,230,230" fill="1" layer="-1.00" shape="2371.527233,521.391325 2376.586490,520.284348 2377.781775,525.749583 2383.918657,524.415824 2378.615369,500.093626 2373.070712,501.296547 2374.411738,507.438039 2368.752901,508.664848 2371.527233,521.391325"/>
    <poly id="182539011" type="building.apartments" color="255,230,230" fill="1" layer="-1.00" shape="2370.045226,647.775371 2380.157103,645.116685 2382.386140,653.280468 2390.807029,649.011402 2396.824050,660.757136 2378.986315,669.721047 2376.117902,668.861539 2370.045226,647.775371"/>
    <poly id="19841872" type="leisure.pitch" color="207,245,201" fill="1" layer="-2.00" shape="1154.965745,340.436391 1138.535310,278.601273 1241.900605,251.280906 1258.330072,313.127447 1154.965745,340.436391"/>
    <poly id="19841872#1" type="sport.soccer" color="79,230,125" fill="1" layer="-2.00" shape="1154.965745,340.436391 1138.535310,278.601273 1241.900605,251.280906 1258.330072,313.127447 1154.965745,340.436391"/>
    <poly id="203409740" type="leisure.pitch" color="207,245,201" fill="1" layer="-2.00" shape="1006.314589,921.527165 1016.334576,919.022905 1016.644410,919.162937 1024.730271,916.553559 1021.229454,903.793850 1017.214328,889.151167 999.013082,894.110537 1003.839389,911.843983 1006.314589,921.527165"/>
    <poly id="203409740#1" type="sport.basketball" color="79,230,125" fill="1" layer="-2.00" shape="1006.314589,921.527165 1016.334576,919.022905 1016.644410,919.162937 1024.730271,916.553559 1021.229454,903.793850 1017.214328,889.151167 999.013082,894.110537 1003.839389,911.843983 1006.314589,921.527165"/>
    <poly id="203409948" type="leisure.pitch" color="207,245,201" fill="1" layer="-2.00" shape="946.517058,788.532940 963.248647,784.373372 955.697199,754.091340 938.958201,758.239918 946.517058,788.532940"/>
    <poly id="203409948#1" type="sport.basketball" color="79,230,125" fill="1" layer="-2.00" shape="946.517058,788.532940 963.248647,784.373372 955.697199,754.091340 938.958201,758.239918 946.517058,788.532940"/>
    <poly id="203410251" type="amenity.parking" color="184,184,179" fill="1" layer="-1.00" shape="1030.590410,755.997298 1046.233406,752.276508 1045.112103,747.555534 1029.469094,751.276327 1030.590410,755.997298"/>
    <poly id="203410256" type="landuse.grass" color="194,194,130" fill="1" layer="-3.00" shape="1028.943077,748.592837 1027.501989,743.053621 1022.168159,744.443921 1028.943077,748.592837"/>
    <poly id="208279307" type="building.roof" color="255,230,230" fill="1" layer="-1.00" shape="1411.152438,830.320445 1410.411470,824.659733 1413.228672,823.962587 1414.209779,828.418778 1414.486190,829.704741 1411.152438,830.320445"/>
    <poly id="213083703" type="landuse.grass" color="194,194,130" fill="1" layer="-3.00" shape="1187.375371,999.815192 1199.404706,996.692530 1193.939580,973.396828 999.667165,1019.441465 1003.015004,1037.886038 1009.832269,1035.662187 1014.252481,1038.866937 1024.890438,1036.542691 1025.038237,1032.459260 1045.497250,1025.787713 1050.933285,1028.955387 1062.885071,1027.879743 1069.075733,1030.769499 1073.572842,1037.275996 1083.909457,1034.411366 1080.881636,1023.635293 1187.375371,999.815192"/>
    <poly id="213083704" type="amenity.school" color="237,199,199" fill="1" layer="-2.00" shape="1083.909457,1034.411366 1080.881636,1023.635293 1187.375371,999.815192 1201.892682,1062.167711 1219.533838,1139.465238 1119.734855,1161.807928 1083.909457,1034.411366"/>
    <poly id="213083704#1" type="landuse.school" color="194,194,130" fill="1" layer="-3.00" shape="1083.909457,1034.411366 1080.881636,1023.635293 1187.375371,999.815192 1201.892682,1062.167711 1219.533838,1139.465238 1119.734855,1161.807928 1083.909457,1034.411366"/>
    <poly id="218722927" type="landuse.allotments" color="194,194,130" fill="1" layer="-3.00" shape="557.293423,801.934055 580.266204,795.813121 599.781105,790.621702 598.757531,778.948975 594.692267,720.614337 584.958512,589.867712 577.499857,485.321206 575.083975,445.689468 570.281004,365.469202 551.112226,374.825828 546.831914,378.747709 542.390111,379.480350 525.843395,387.997775 531.493566,467.371495 546.071844,635.345313 549.518389,682.735203 557.293423,801.934055"/>
    <poly id="218722928" type="landuse.residential" color="235,235,227" fill="1" layer="-3.00" shape="566.781574,1071.047338 516.098958,1083.692896 485.513287,1090.882717 467.337279,1077.572327 381.048804,1097.194180 357.513920,991.439403 354.912989,980.590679 428.296059,968.609613 550.937488,930.282000 566.573764,1001.513013 550.637024,1006.118090 566.781574,1071.047338"/>